@<TRIPOS>MOLECULE
181L.lig
   12    12     1     0     0
SMALL
bcc


@<TRIPOS>ATOM
      1 C1         25.9780    5.3270    4.7790 C.ar      1 LIG     -0.130000
      2 H1         25.2390    4.6940    5.2400 H         1 LIG      0.130000
      3 C2         26.3950    5.0740    3.4990 C.ar      1 LIG     -0.130000
      4 H2         25.9770    4.2470    2.9500 H         1 LIG      0.130000
      5 C3         27.3400    5.8600    2.9020 C.ar      1 LIG     -0.130000
      6 H3         27.6820    5.6300    1.9070 H         1 LIG      0.130000
      7 C4         27.8370    6.9210    3.5690 C.ar      1 LIG     -0.130000
      8 H4         28.5640    7.5610    3.0980 H         1 LIG      0.130000
      9 C5         27.4200    7.1960    4.8560 C.ar      1 LIG     -0.130000
     10 H5         27.8160    8.0500    5.3800 H         1 LIG      0.130000
     11 C6         26.4980    6.3790    5.4690 C.ar      1 LIG     -0.130000
     12 H6         26.1870    6.5640    6.4830 H         1 LIG      0.130000
@<TRIPOS>BOND
     1    2    1 1   
     2    3    1 ar  
     3    4    3 1   
     4    5    3 ar  
     5    6    5 1   
     6    7    5 ar  
     7    8    7 1   
     8    9    7 ar  
     9   10    9 1   
    10   11    1 ar  
    11   11    9 ar  
    12   12   11 1   
@<TRIPOS>SUBSTRUCTURE
     1 LIG         1 TEMP              0 ****  ****    0 ROOT
