@<TRIPOS>MOLECULE
188L.lig
   18    18     1     0     0
SMALL
bcc


@<TRIPOS>ATOM
      1 C1         27.2140    7.4650    4.4890 C.ar      1 LIG     -0.078300
      2 C2         27.5750    6.9460    3.2690 C.ar      1 LIG     -0.078300
      3 C3         27.2520    5.6280    2.9580 C.ar      1 LIG     -0.127000
      4 H1         27.6340    5.1780    2.0570 H         1 LIG      0.130000
      5 C4         26.4320    4.8790    3.8100 C.ar      1 LIG     -0.132000
      6 H2         26.1140    3.8920    3.5210 H         1 LIG      0.130000
      7 C5         26.0190    5.4030    5.0400 C.ar      1 LIG     -0.132000
      8 H3         25.3840    4.8210    5.6870 H         1 LIG      0.130000
      9 C6         26.4360    6.6760    5.4130 C.ar      1 LIG     -0.127000
     10 H4         26.1830    7.0740    6.3810 H         1 LIG      0.130000
     11 C7         27.6430    8.8780    4.7960 C.3       1 LIG     -0.051800
     12 H5         28.7000    8.9370    4.7830 H         1 LIG      0.044700
     13 H6         27.2440    9.5340    4.0670 H         1 LIG      0.044700
     14 H7         27.2860    9.1550    5.7540 H         1 LIG      0.040700
     15 C8         28.4530    7.7660    2.3490 C.3       1 LIG     -0.051800
     16 H8         29.3210    8.0740    2.8710 H         1 LIG      0.044700
     17 H9         27.9190    8.6190    2.0190 H         1 LIG      0.044700
     18 H10        28.7330    7.1790    1.5130 H         1 LIG      0.040700
@<TRIPOS>BOND
     1    2    1 ar  
     2    3    2 ar  
     3    4    3 1   
     4    5    3 ar  
     5    6    5 1   
     6    7    5 ar  
     7    8    7 1   
     8    9    1 ar  
     9    9    7 ar  
    10   10    9 1   
    11   11    1 1   
    12   12   11 1   
    13   13   11 1   
    14   14   11 1   
    15   15    2 1   
    16   16   15 1   
    17   17   15 1   
    18   18   15 1   
@<TRIPOS>SUBSTRUCTURE
     1 LIG         1 TEMP              0 ****  ****    0 ROOT
